6998029
  -OEChem-10301919513D

 20 19  0     1  0  0  0  0  0999 V2000
    0.7678    1.0333    1.1238 O   0  0  0  0  0  0  0  0  0  0  0  0
   -1.8033   -1.3184    0.3291 O   0  0  0  0  0  0  0  0  0  0  0  0
   -3.5624    0.1136    0.2770 O   0  0  0  0  0  0  0  0  0  0  0  0
   -0.1435    0.2970   -0.8788 N   0  0  0  0  0  0  0  0  0  0  0  0
    3.2928    0.5781    0.1123 N   0  0  0  0  0  0  0  0  0  0  0  0
    2.1762   -0.1982   -0.4209 C   0  0  2  0  0  0  0  0  0  0  0  0
    0.8780    0.4453    0.0498 C   0  0  0  0  0  0  0  0  0  0  0  0
    2.2573   -1.6402    0.0644 C   0  0  0  0  0  0  0  0  0  0  0  0
   -1.4706    0.8298   -0.6749 C   0  0  0  0  0  0  0  0  0  0  0  0
   -2.3923   -0.1404    0.0183 C   0  0  0  0  0  0  0  0  0  0  0  0
    2.2275   -0.1701   -1.5150 H   0  0  0  0  0  0  0  0  0  0  0  0
    1.4277   -2.2305   -0.3403 H   0  0  0  0  0  0  0  0  0  0  0  0
    2.1960   -1.7024    1.1571 H   0  0  0  0  0  0  0  0  0  0  0  0
    3.1926   -2.1132   -0.2538 H   0  0  0  0  0  0  0  0  0  0  0  0
    0.0278   -0.2295   -1.7304 H   0  0  0  0  0  0  0  0  0  0  0  0
   -1.8824    1.0584   -1.6618 H   0  0  0  0  0  0  0  0  0  0  0  0
   -1.4058    1.7404   -0.0721 H   0  0  0  0  0  0  0  0  0  0  0  0
    4.1724    0.1652   -0.1968 H   0  0  0  0  0  0  0  0  0  0  0  0
    3.3017    0.5174    1.1303 H   0  0  0  0  0  0  0  0  0  0  0  0
   -2.4226   -1.9313    0.7797 H   0  0  0  0  0  0  0  0  0  0  0  0
  1  7  2  0  0  0  0
  2 10  1  0  0  0  0
  2 20  1  0  0  0  0
  3 10  2  0  0  0  0
  4  7  1  0  0  0  0
  4  9  1  0  0  0  0
  4 15  1  0  0  0  0
  5  6  1  0  0  0  0
  5 18  1  0  0  0  0
  5 19  1  0  0  0  0
  6  7  1  0  0  0  0
  6  8  1  0  0  0  0
  6 11  1  0  0  0  0
  8 12  1  0  0  0  0
  8 13  1  0  0  0  0
  8 14  1  0  0  0  0
  9 10  1  0  0  0  0
  9 16  1  0  0  0  0
  9 17  1  0  0  0  0
M  END
> <PUBCHEM_COMPOUND_CID>
6998029

> <PUBCHEM_CONFORMER_RMSD>
0.6

> <PUBCHEM_CONFORMER_DIVERSEORDER>
1
8
11
15
14
5
19
18
6
21
20
16
3
13
22
9
17
4
10
2
7
12

> <PUBCHEM_MMFF94_PARTIAL_CHARGES>
13
1 -0.57
10 0.66
15 0.37
18 0.36
19 0.36
2 -0.65
20 0.5
3 -0.57
4 -0.73
5 -0.99
6 0.33
7 0.57
9 0.36

> <PUBCHEM_EFFECTIVE_ROTOR_COUNT>
4

> <PUBCHEM_PHARMACOPHORE_FEATURES>
7
1 1 acceptor
1 2 acceptor
1 3 acceptor
1 4 donor
1 5 cation
1 5 donor
3 2 3 10 anion

> <PUBCHEM_HEAVY_ATOM_COUNT>
10

> <PUBCHEM_ATOM_DEF_STEREO_COUNT>
1

> <PUBCHEM_ATOM_UDEF_STEREO_COUNT>
0

> <PUBCHEM_BOND_DEF_STEREO_COUNT>
0

> <PUBCHEM_BOND_UDEF_STEREO_COUNT>
0

> <PUBCHEM_ISOTOPIC_ATOM_COUNT>
0

> <PUBCHEM_COMPONENT_COUNT>
1

> <PUBCHEM_CACTVS_TAUTO_COUNT>
2

> <PUBCHEM_CONFORMER_ID>
006AC80D00000001

> <PUBCHEM_MMFF94_ENERGY>
8.3767

> <PUBCHEM_FEATURE_SELFOVERLAP>
35.579

> <PUBCHEM_SHAPE_FINGERPRINT>
10219947 1 16630814300311522780
11062470 55 17917996074643224553
12897270 3 17967535666286217182
12932764 1 17988913474959742069
14325111 11 18335701607218851965
15310529 11 18409726236075004796
20201158 50 18410012117672596522
21293036 1 13840279082194439942
23380061 451 18342742892451986682
23552333 60 18343022147357938426
23552423 10 17749673991204435630
29004967 10 18343299267047867664
3248919 1 18261101963630028124
57812782 119 9871749074556249412

> <PUBCHEM_SHAPE_MULTIPOLES>
178.23
5.02
1.25
0.83
1.13
0.46
0.03
0.55
0.3
-0.44
0.1
-0.03
-0.16
0.27

> <PUBCHEM_SHAPE_SELFOVERLAP>
336.921

> <PUBCHEM_SHAPE_VOLUME>
110.2

> <PUBCHEM_COORDINATE_TYPE>
2
5
10

$$$$
